<?xml version="1.0" encoding="UTF-8"?>

<!-- generated on 07/25/24 22:27:21 by Eclipse SUMO netedit Version 1.8.0
<configuration xmlns:xsi="http://www.w3.org/2001/XMLSchema-instance" xsi:noNamespaceSchemaLocation="http://sumo.dlr.de/xsd/netconvertConfiguration.xsd">

    <input>
        <sumo-net-file value="C:\Users\18521\Downloads\Dynamic-Traffic-light-management-system-main\maps/map1.net.xml"/>
    </input>

    <output>
        <output-file value="C:\Users\18521\Downloads\Dynamic-Traffic-light-management-system-main\maps/map1.net.xml"/>
    </output>

    <processing>
        <geometry.min-radius.fix.railways value="false"/>
        <geometry.max-grade.fix value="false"/>
        <offset.disable-normalization value="true"/>
        <lefthand value="false"/>
    </processing>

    <junctions>
        <no-turnarounds value="true"/>
        <junctions.corner-detail value="5"/>
        <junctions.limit-turn-speed value="5.5"/>
        <rectangular-lane-cut value="false"/>
    </junctions>

    <pedestrian>
        <walkingareas value="false"/>
    </pedestrian>

    <report>
        <aggregate-warnings value="5"/>
    </report>

</configuration>
-->

<net version="1.6" junctionCornerDetail="5" limitTurnSpeed="5.50" xmlns:xsi="http://www.w3.org/2001/XMLSchema-instance" xsi:noNamespaceSchemaLocation="http://sumo.dlr.de/xsd/net_file.xsd">

    <location netOffset="-585097.90,-2323042.66" convBoundary="0.00,0.00,957.79,846.53" origBoundary="105.818863,21.006099,105.828047,21.013765" projParameter="+proj=utm +zone=48 +ellps=WGS84 +datum=WGS84 +units=m +no_defs"/>

    <type id="highway.bridleway" priority="1" numLanes="1" speed="2.78" allow="pedestrian" oneway="1" width="2.00"/>
    <type id="highway.bus_guideway" priority="1" numLanes="1" speed="27.78" allow="bus" oneway="1"/>
    <type id="highway.cycleway" priority="1" numLanes="1" speed="8.33" allow="bicycle" oneway="1" width="1.00"/>
    <type id="highway.footway" priority="1" numLanes="1" speed="2.78" allow="pedestrian" oneway="1" width="2.00"/>
    <type id="highway.ford" priority="1" numLanes="1" speed="2.78" allow="army" oneway="1"/>
    <type id="highway.living_street" priority="2" numLanes="1" speed="2.78" disallow="tram rail_urban rail rail_electric rail_fast ship" oneway="1"/>
    <type id="highway.motorway" priority="14" numLanes="2" speed="39.44" allow="private emergency authority army vip passenger hov taxi bus coach delivery truck trailer motorcycle evehicle custom1 custom2" oneway="1"/>
    <type id="highway.motorway_link" priority="9" numLanes="1" speed="22.22" allow="private emergency authority army vip passenger hov taxi bus coach delivery truck trailer motorcycle evehicle custom1 custom2" oneway="1"/>
    <type id="highway.path" priority="1" numLanes="1" speed="2.78" allow="pedestrian bicycle" oneway="1" width="2.00"/>
    <type id="highway.pedestrian" priority="1" numLanes="1" speed="2.78" allow="pedestrian" oneway="1" width="2.00"/>
    <type id="highway.primary" priority="12" numLanes="2" speed="27.78" disallow="tram rail_urban rail rail_electric rail_fast ship" oneway="1"/>
    <type id="highway.primary_link" priority="7" numLanes="1" speed="22.22" disallow="tram rail_urban rail rail_electric rail_fast ship" oneway="1"/>
    <type id="highway.raceway" priority="15" numLanes="2" speed="83.33" allow="vip" oneway="1"/>
    <type id="highway.residential" priority="3" numLanes="1" speed="13.89" disallow="tram rail_urban rail rail_electric rail_fast ship" oneway="1"/>
    <type id="highway.secondary" priority="11" numLanes="1" speed="27.78" disallow="tram rail_urban rail rail_electric rail_fast ship" oneway="1"/>
    <type id="highway.secondary_link" priority="6" numLanes="1" speed="22.22" disallow="tram rail_urban rail rail_electric rail_fast ship" oneway="1"/>
    <type id="highway.service" priority="1" numLanes="1" speed="5.56" allow="pedestrian delivery bicycle" oneway="1"/>
    <type id="highway.stairs" priority="1" numLanes="1" speed="1.39" allow="pedestrian" oneway="1" width="2.00"/>
    <type id="highway.step" priority="1" numLanes="1" speed="1.39" allow="pedestrian" oneway="1" width="2.00"/>
    <type id="highway.steps" priority="1" numLanes="1" speed="1.39" allow="pedestrian" oneway="1" width="2.00"/>
    <type id="highway.tertiary" priority="10" numLanes="1" speed="22.22" disallow="tram rail_urban rail rail_electric rail_fast ship" oneway="1"/>
    <type id="highway.tertiary_link" priority="5" numLanes="1" speed="22.22" disallow="tram rail_urban rail rail_electric rail_fast ship" oneway="1"/>
    <type id="highway.track" priority="1" numLanes="1" speed="5.56" allow="pedestrian motorcycle moped bicycle" oneway="1"/>
    <type id="highway.trunk" priority="13" numLanes="2" speed="27.78" disallow="pedestrian bicycle tram rail_urban rail rail_electric rail_fast ship" oneway="1"/>
    <type id="highway.trunk_link" priority="8" numLanes="1" speed="22.22" disallow="pedestrian bicycle tram rail_urban rail rail_electric rail_fast ship" oneway="1"/>
    <type id="highway.unclassified" priority="4" numLanes="1" speed="13.89" disallow="tram rail_urban rail rail_electric rail_fast ship" oneway="1"/>
    <type id="highway.unsurfaced" priority="1" numLanes="1" speed="8.33" disallow="tram rail_urban rail rail_electric rail_fast ship" oneway="1"/>
    <type id="railway.highspeed" priority="21" numLanes="1" speed="69.44" allow="rail_fast" oneway="1"/>
    <type id="railway.light_rail" priority="19" numLanes="1" speed="27.78" allow="rail_urban" oneway="1"/>
    <type id="railway.preserved" priority="16" numLanes="1" speed="27.78" allow="rail" oneway="1"/>
    <type id="railway.rail" priority="20" numLanes="1" speed="44.44" allow="rail" oneway="1"/>
    <type id="railway.subway" priority="18" numLanes="1" speed="27.78" allow="rail_urban" oneway="1"/>
    <type id="railway.tram" priority="17" numLanes="1" speed="13.89" allow="tram" oneway="1"/>

    <edge id=":10060600235_0" function="internal">
        <lane id=":10060600235_0_0" index="0" allow="pedestrian delivery bicycle" speed="4.51" length="3.82" shape="700.37,290.54 700.83,291.05 701.55,291.23 702.55,291.07 703.82,290.57"/>
    </edge>
    <edge id=":10060600235_1" function="internal">
        <lane id=":10060600235_1_0" index="0" allow="pedestrian delivery bicycle" speed="3.65" length="4.67" shape="700.37,290.54 700.15,291.96 699.60,292.66 698.71,292.64 697.47,291.89"/>
    </edge>
    <edge id=":10060600235_2" function="internal">
        <lane id=":10060600235_2_0" index="0" allow="pedestrian delivery bicycle" speed="4.53" length="3.82" shape="695.34,294.62 696.52,293.95 697.27,293.28 697.58,292.59 697.47,291.89"/>
    </edge>
    <edge id=":10060600235_3" function="internal">
        <lane id=":10060600235_3_0" index="0" disallow="tram rail_urban rail rail_electric rail_fast ship" speed="27.78" length="9.40" shape="695.34,294.62 703.82,290.57"/>
        <lane id=":10060600235_3_1" index="1" disallow="tram rail_urban rail rail_electric rail_fast ship" speed="27.78" length="9.40" shape="696.72,297.51 705.20,293.45"/>
    </edge>
    <edge id=":10060600236_0" function="internal">
        <lane id=":10060600236_0_0" index="0" allow="pedestrian delivery bicycle" speed="5.56" length="3.51" shape="697.39,291.71 695.92,288.53"/>
    </edge>
    <edge id=":10060600236_1" function="internal">
        <lane id=":10060600236_1_0" index="0" allow="pedestrian delivery bicycle" speed="3.65" length="2.34" shape="697.39,291.71 697.60,290.29 698.16,289.59"/>
    </edge>
    <edge id=":10060600236_4" function="internal">
        <lane id=":10060600236_4_0" index="0" allow="pedestrian delivery bicycle" speed="3.65" length="2.34" shape="698.16,289.59 699.05,289.61 700.28,290.36"/>
    </edge>
    <edge id=":10060600236_2" function="internal">
        <lane id=":10060600236_2_0" index="0" allow="pedestrian delivery bicycle" speed="5.56" length="3.47" shape="698.83,287.20 700.28,290.36"/>
    </edge>
    <edge id=":10060600236_3" function="internal">
        <lane id=":10060600236_3_0" index="0" allow="pedestrian delivery bicycle" speed="3.65" length="2.34" shape="698.83,287.20 698.60,288.62 698.04,289.32"/>
    </edge>
    <edge id=":10060600236_5" function="internal">
        <lane id=":10060600236_5_0" index="0" allow="pedestrian delivery bicycle" speed="3.65" length="2.34" shape="698.04,289.32 697.15,289.29 695.92,288.53"/>
    </edge>
    <edge id=":10060600239_0" function="internal">
        <lane id=":10060600239_0_0" index="0" allow="pedestrian delivery bicycle" speed="5.03" length="5.01" shape="713.79,236.05 713.03,234.91 712.08,234.30 710.95,234.20 709.65,234.62"/>
    </edge>
    <edge id=":10060600239_1" function="internal">
        <lane id=":10060600239_1_0" index="0" allow="pedestrian delivery bicycle" speed="5.56" length="9.40" shape="713.79,236.05 709.70,227.59"/>
    </edge>
    <edge id=":10060600239_2" function="internal">
        <lane id=":10060600239_2_0" index="0" allow="pedestrian delivery bicycle" speed="3.65" length="4.67" shape="713.79,236.05 713.99,234.62 714.54,233.92 715.43,233.93 716.67,234.66"/>
    </edge>
    <edge id=":10060600239_3" function="internal">
        <lane id=":10060600239_3_0" index="0" allow="pedestrian delivery bicycle" speed="5.56" length="9.40" shape="712.58,226.20 716.67,234.66"/>
    </edge>
    <edge id=":10060600239_4" function="internal">
        <lane id=":10060600239_4_0" index="0" allow="pedestrian delivery bicycle" speed="5.56" length="10.16" shape="712.58,226.20 713.42,228.84 713.21,231.13 711.96,233.05 709.65,234.62"/>
    </edge>
    <edge id=":10060600239_5" function="internal">
        <lane id=":10060600239_5_0" index="0" allow="pedestrian delivery bicycle" speed="3.65" length="4.67" shape="712.58,226.20 712.38,227.63 711.84,228.33 710.94,228.32 709.70,227.59"/>
    </edge>
    <edge id=":10060600239_6" function="internal">
        <lane id=":10060600239_6_0" index="0" allow="pedestrian delivery bicycle" speed="5.06" length="5.02" shape="708.24,231.75 709.38,230.97 710.01,230.02 710.11,228.89 709.70,227.59"/>
    </edge>
    <edge id=":10060600239_7" function="internal">
        <lane id=":10060600239_7_0" index="0" allow="pedestrian delivery bicycle" speed="5.56" length="10.19" shape="708.24,231.75 710.90,230.89 713.19,231.08 715.11,232.34 716.67,234.66"/>
    </edge>
    <edge id=":10060600239_8" function="internal">
        <lane id=":10060600239_8_0" index="0" allow="pedestrian delivery bicycle" speed="3.65" length="4.67" shape="708.24,231.75 709.67,231.94 710.38,232.48 710.37,233.37 709.65,234.62"/>
    </edge>
    <edge id=":10060600246_0" function="internal">
        <lane id=":10060600246_0_0" index="0" allow="pedestrian delivery bicycle" speed="3.65" length="4.67" shape="756.75,238.94 756.57,240.37 756.03,241.08 755.13,241.08 753.89,240.36"/>
    </edge>
    <edge id=":10060600248_0" function="internal">
        <lane id=":10060600248_0_0" index="0" allow="pedestrian delivery bicycle" speed="5.01" length="5.03" shape="655.81,223.26 655.05,222.10 654.11,221.47 652.98,221.37 651.67,221.81"/>
    </edge>
    <edge id=":10060600248_1" function="internal">
        <lane id=":10060600248_1_0" index="0" allow="pedestrian delivery bicycle" speed="5.56" length="10.17" shape="655.81,223.26 654.98,220.57 655.18,218.26 656.41,216.32 658.67,214.76"/>
    </edge>
    <edge id=":10060600248_2" function="internal">
        <lane id=":10060600248_2_0" index="0" allow="pedestrian delivery bicycle" speed="3.65" length="4.67" shape="655.81,223.26 656.03,221.83 656.58,221.13 657.48,221.15 658.71,221.90"/>
    </edge>
    <edge id=":10060600248_3" function="internal">
        <lane id=":10060600248_3_0" index="0" allow="pedestrian delivery bicycle" speed="5.12" length="5.10" shape="660.09,217.63 658.98,218.41 658.38,219.38 658.29,220.54 658.71,221.90"/>
    </edge>
    <edge id=":10060600248_4" function="internal">
        <lane id=":10060600248_4_0" index="0" allow="pedestrian delivery bicycle" speed="5.56" length="9.40" shape="660.09,217.63 651.67,221.81"/>
    </edge>
    <edge id=":10060600248_5" function="internal">
        <lane id=":10060600248_5_0" index="0" allow="pedestrian delivery bicycle" speed="3.65" length="4.67" shape="660.09,217.63 658.66,217.44 657.95,216.91 657.95,216.01 658.67,214.76"/>
    </edge>
    <edge id=":10060600248_6" function="internal">
        <lane id=":10060600248_6_0" index="0" allow="pedestrian delivery bicycle" speed="5.56" length="9.40" shape="650.25,218.94 658.67,214.76"/>
    </edge>
    <edge id=":10060600248_7" function="internal">
        <lane id=":10060600248_7_0" index="0" allow="pedestrian delivery bicycle" speed="5.56" length="10.28" shape="650.25,218.94 652.93,218.06 655.24,218.25 657.16,219.54 658.71,221.90"/>
    </edge>
    <edge id=":10060600248_8" function="internal">
        <lane id=":10060600248_8_0" index="0" allow="pedestrian delivery bicycle" speed="3.65" length="4.67" shape="650.25,218.94 651.68,219.12 652.39,219.66 652.39,220.56 651.67,221.81"/>
    </edge>
    <edge id=":10060600249_0" function="internal">
        <lane id=":10060600249_0_0" index="0" allow="pedestrian delivery bicycle" speed="3.65" length="4.67" shape="672.19,250.81 671.97,252.24 671.42,252.94 670.52,252.92 669.29,252.17"/>
    </edge>
    <edge id=":10116028532_0" function="internal">
        <lane id=":10116028532_0_0" index="0" disallow="tram rail_urban rail rail_electric rail_fast ship" speed="22.22" length="5.22" shape="586.77,308.12 591.73,309.66"/>
        <lane id=":10116028532_0_1" index="1" disallow="tram rail_urban rail rail_electric rail_fast ship" speed="22.22" length="5.22" shape="585.79,311.17 590.80,312.72"/>
    </edge>
    <edge id=":10116028549_0" function="internal">
        <lane id=":10116028549_0_0" index="0" allow="pedestrian delivery bicycle" speed="5.56" length="3.38" shape="621.62,407.54 618.68,409.21"/>
    </edge>
    <edge id=":10116028549_1" function="internal">
        <lane id=":10116028549_1_0" index="0" allow="pedestrian delivery bicycle" speed="3.65" length="2.34" shape="621.62,407.54 620.18,407.43 619.44,406.94"/>
    </edge>
    <edge id=":10116028549_4" function="internal">
        <lane id=":10116028549_4_0" index="0" allow="pedestrian delivery bicycle" speed="3.65" length="2.34" shape="619.44,406.94 619.39,406.04 620.04,404.75"/>
    </edge>
    <edge id=":10116028549_2" function="internal">
        <lane id=":10116028549_2_0" index="0" allow="pedestrian delivery bicycle" speed="5.56" length="3.42" shape="617.07,406.45 620.04,404.75"/>
    </edge>
    <edge id=":10116028549_3" function="internal">
        <lane id=":10116028549_3_0" index="0" allow="pedestrian delivery bicycle" speed="3.65" length="2.34" shape="617.07,406.45 618.51,406.54 619.26,407.03"/>
    </edge>
    <edge id=":10116028549_5" function="internal">
        <lane id=":10116028549_5_0" index="0" allow="pedestrian delivery bicycle" speed="3.65" length="2.34" shape="619.26,407.03 619.31,407.92 618.68,409.21"/>
    </edge>
    <edge id=":10156272202_0" function="internal">
        <lane id=":10156272202_0_0" index="0" allow="pedestrian delivery bicycle" speed="5.56" length="4.39" shape="493.64,208.01 489.86,210.24"/>
    </edge>
    <edge id=":10156272202_1" function="internal">
        <lane id=":10156272202_1_0" index="0" allow="pedestrian delivery bicycle" speed="3.65" length="2.34" shape="493.64,208.01 492.20,207.93 491.45,207.44"/>
    </edge>
    <edge id=":10156272202_4" function="internal">
        <lane id=":10156272202_4_0" index="0" allow="pedestrian delivery bicycle" speed="3.65" length="2.34" shape="491.45,207.44 491.39,206.55 492.01,205.25"/>
    </edge>
    <edge id=":10156272202_2" function="internal">
        <lane id=":10156272202_2_0" index="0" allow="pedestrian delivery bicycle" speed="5.56" length="4.39" shape="488.23,207.48 492.01,205.25"/>
    </edge>
    <edge id=":10156272202_3" function="internal">
        <lane id=":10156272202_3_0" index="0" allow="pedestrian delivery bicycle" speed="3.65" length="2.34" shape="488.23,207.48 489.67,207.56 490.42,208.05"/>
    </edge>
    <edge id=":10156272202_5" function="internal">
        <lane id=":10156272202_5_0" index="0" allow="pedestrian delivery bicycle" speed="3.65" length="2.34" shape="490.42,208.05 490.48,208.94 489.86,210.24"/>
    </edge>
    <edge id=":10156272203_0" function="internal">
        <lane id=":10156272203_0_0" index="0" allow="pedestrian delivery bicycle" speed="5.56" length="3.55" shape="524.44,277.12 521.56,279.20"/>
    </edge>
    <edge id=":10156272203_1" function="internal">
        <lane id=":10156272203_1_0" index="0" allow="pedestrian delivery bicycle" speed="3.65" length="2.34" shape="524.44,277.12 523.00,277.18 522.21,276.76"/>
    </edge>
    <edge id=":10156272203_4" function="internal">
        <lane id=":10156272203_4_0" index="0" allow="pedestrian delivery bicycle" speed="3.65" length="2.34" shape="522.21,276.76 522.06,275.88 522.57,274.53"/>
    </edge>
    <edge id=":10156272203_2" function="internal">
        <lane id=":10156272203_2_0" index="0" allow="pedestrian delivery bicycle" speed="5.56" length="3.54" shape="519.69,276.60 522.57,274.53"/>
    </edge>
    <edge id=":10156272203_3" function="internal">
        <lane id=":10156272203_3_0" index="0" allow="pedestrian delivery bicycle" speed="3.65" length="2.34" shape="519.69,276.60 521.13,276.55 521.92,276.96"/>
    </edge>
    <edge id=":10156272203_5" function="internal">
        <lane id=":10156272203_5_0" index="0" allow="pedestrian delivery bicycle" speed="3.65" length="2.34" shape="521.92,276.96 522.07,277.85 521.56,279.20"/>
    </edge>
    <edge id=":10170867112_0" function="internal">
        <lane id=":10170867112_0_0" index="0" allow="pedestrian delivery bicycle" speed="5.56" length="3.80" shape="415.38,463.34 412.69,460.66"/>
    </edge>
    <edge id=":10170867112_1" function="internal">
        <lane id=":10170867112_1_0" index="0" allow="pedestrian delivery bicycle" speed="3.65" length="2.34" shape="415.38,463.34 415.10,461.92 415.38,461.07"/>
    </edge>
    <edge id=":10170867112_4" function="internal">
        <lane id=":10170867112_4_0" index="0" allow="pedestrian delivery bicycle" speed="3.65" length="2.34" shape="415.38,461.07 416.22,460.79 417.64,461.07"/>
    </edge>
    <edge id=":10170867112_2" function="internal">
        <lane id=":10170867112_2_0" index="0" allow="pedestrian delivery bicycle" speed="5.56" length="3.80" shape="414.94,458.39 417.64,461.07"/>
    </edge>
    <edge id=":10170867112_3" function="internal">
        <lane id=":10170867112_3_0" index="0" allow="pedestrian delivery bicycle" speed="3.65" length="2.34" shape="414.94,458.39 415.23,459.80 414.95,460.65"/>
    </edge>
    <edge id=":10170867112_5" function="internal">
        <lane id=":10170867112_5_0" index="0" allow="pedestrian delivery bicycle" speed="3.65" length="2.34" shape="414.95,460.65 414.10,460.93 412.69,460.66"/>
    </edge>
    <edge id=":10170867113_0" function="internal">
        <lane id=":10170867113_0_0" index="0" allow="pedestrian delivery bicycle" speed="5.56" length="5.62" shape="468.80,428.08 464.96,423.97"/>
    </edge>
    <edge id=":10170867113_1" function="internal">
        <lane id=":10170867113_1_0" index="0" allow="pedestrian delivery bicycle" speed="3.65" length="2.34" shape="468.80,428.08 468.56,426.66 468.87,425.82"/>
    </edge>
    <edge id=":10170867113_4" function="internal">
        <lane id=":10170867113_4_0" index="0" allow="pedestrian delivery bicycle" speed="3.65" length="2.34" shape="468.87,425.82 469.73,425.56 471.13,425.89"/>
    </edge>
    <edge id=":10170867113_2" function="internal">
        <lane id=":10170867113_2_0" index="0" allow="pedestrian delivery bicycle" speed="5.56" length="5.62" shape="467.29,421.79 471.13,425.89"/>
    </edge>
    <edge id=":10170867113_3" function="internal">
        <lane id=":10170867113_3_0" index="0" allow="pedestrian delivery bicycle" speed="3.65" length="2.34" shape="467.29,421.79 467.53,423.21 467.22,424.05"/>
    </edge>
    <edge id=":10170867113_5" function="internal">
        <lane id=":10170867113_5_0" index="0" allow="pedestrian delivery bicycle" speed="3.65" length="2.34" shape="467.22,424.05 466.36,424.30 464.96,423.97"/>
    </edge>
    <edge id=":10170867147_0" function="internal">
        <lane id=":10170867147_0_0" index="0" allow="pedestrian delivery bicycle" speed="5.56" length="4.62" shape="413.52,442.17 409.86,439.34"/>
    </edge>
    <edge id=":10170867147_1" function="internal">
        <lane id=":10170867147_1_0" index="0" allow="pedestrian delivery bicycle" speed="3.65" length="2.34" shape="413.52,442.17 413.05,440.81 413.21,439.93"/>
    </edge>
    <edge id=":10170867147_4" function="internal">
        <lane id=":10170867147_4_0" index="0" allow="pedestrian delivery bicycle" speed="3.65" length="2.34" shape="413.21,439.93 414.02,439.53 415.46,439.63"/>
    </edge>
    <edge id=":10170867147_2" function="internal">
        <lane id=":10170867147_2_0" index="0" allow="pedestrian delivery bicycle" speed="5.56" length="4.60" shape="411.82,436.81 415.46,439.63"/>
    </edge>
    <edge id=":10170867147_3" function="internal">
        <lane id=":10170867147_3_0" index="0" allow="pedestrian delivery bicycle" speed="3.65" length="2.34" shape="411.82,436.81 412.28,438.18 412.11,439.05"/>
    </edge>
    <edge id=":10170867147_5" function="internal">
        <lane id=":10170867147_5_0" index="0" allow="pedestrian delivery bicycle" speed="3.65" length="2.34" shape="412.11,439.05 411.30,439.44 409.86,439.34"/>
    </edge>
    <edge id=":10170867148_0" function="internal">
        <lane id=":10170867148_0_0" index="0" allow="pedestrian delivery bicycle" speed="5.56" length="4.32" shape="449.24,414.97 446.77,411.43"/>
    </edge>
    <edge id=":10170867148_1" function="internal">
        <lane id=":10170867148_1_0" index="0" allow="pedestrian delivery bicycle" speed="3.65" length="2.34" shape="449.24,414.97 449.21,413.53 449.64,412.75"/>
    </edge>
    <edge id=":10170867148_4" function="internal">
        <lane id=":10170867148_4_0" index="0" allow="pedestrian delivery bicycle" speed="3.65" length="2.34" shape="449.64,412.75 450.52,412.62 451.86,413.14"/>
    </edge>
    <edge id=":10170867148_2" function="internal">
        <lane id=":10170867148_2_0" index="0" allow="pedestrian delivery bicycle" speed="5.56" length="4.31" shape="449.40,409.60 451.86,413.14"/>
    </edge>
    <edge id=":10170867148_3" function="internal">
        <lane id=":10170867148_3_0" index="0" allow="pedestrian delivery bicycle" speed="3.65" length="2.34" shape="449.40,409.60 449.43,411.05 449.00,411.83"/>
    </edge>
    <edge id=":10170867148_5" function="internal">
        <lane id=":10170867148_5_0" index="0" allow="pedestrian delivery bicycle" speed="3.65" length="2.34" shape="449.00,411.83 448.11,411.96 446.77,411.43"/>
    </edge>
    <edge id=":11173433345_0" function="internal">
        <lane id=":11173433345_0_0" index="0" allow="pedestrian delivery bicycle" speed="3.65" length="4.67" shape="698.39,162.36 698.59,160.93 699.13,160.22 700.03,160.23 701.27,160.96"/>
    </edge>
    <edge id=":11173433348_0" function="internal">
        <lane id=":11173433348_0_0" index="0" allow="pedestrian delivery bicycle" speed="4.64" length="3.98" shape="752.54,265.52 753.07,266.13 753.84,266.39 754.85,266.28 756.11,265.81"/>
    </edge>
    <edge id=":11173433348_1" function="internal">
        <lane id=":11173433348_1_0" index="0" allow="pedestrian delivery bicycle" speed="3.65" length="4.67" shape="752.54,265.52 752.37,266.95 751.84,267.67 750.94,267.67 749.69,266.96"/>
    </edge>
    <edge id=":11173433348_2" function="internal">
        <lane id=":11173433348_2_0" index="0" allow="pedestrian delivery bicycle" speed="4.54" length="3.94" shape="747.61,269.81 748.80,269.13 749.55,268.43 749.84,267.71 749.69,266.96"/>
    </edge>
    <edge id=":11173433348_3" function="internal">
        <lane id=":11173433348_3_0" index="0" disallow="tram rail_urban rail rail_electric rail_fast ship" speed="27.78" length="9.40" shape="747.61,269.81 756.11,265.81"/>
        <lane id=":11173433348_3_1" index="1" disallow="tram rail_urban rail rail_electric rail_fast ship" speed="27.78" length="9.40" shape="748.97,272.71 757.48,268.70"/>
    </edge>
    <edge id=":11173433349_0" function="internal">
        <lane id=":11173433349_0_0" index="0" allow="pedestrian delivery bicycle" speed="5.56" length="3.65" shape="749.60,266.78 747.95,263.52"/>
    </edge>
    <edge id=":11173433349_1" function="internal">
        <lane id=":11173433349_1_0" index="0" allow="pedestrian delivery bicycle" speed="3.65" length="2.34" shape="749.60,266.78 749.77,265.35 750.30,264.63"/>
    </edge>
    <edge id=":11173433349_4" function="internal">
        <lane id=":11173433349_4_0" index="0" allow="pedestrian delivery bicycle" speed="3.65" length="2.34" shape="750.30,264.63 751.20,264.63 752.45,265.34"/>
    </edge>
    <edge id=":11173433349_2" function="internal">
        <lane id=":11173433349_2_0" index="0" allow="pedestrian delivery bicycle" speed="5.56" length="3.65" shape="750.81,262.08 752.45,265.34"/>
    </edge>
    <edge id=":11173433349_3" function="internal">
        <lane id=":11173433349_3_0" index="0" allow="pedestrian delivery bicycle" speed="3.65" length="2.34" shape="750.81,262.08 750.64,263.51 750.10,264.23"/>
    </edge>
    <edge id=":11173433349_5" function="internal">
        <lane id=":11173433349_5_0" index="0" allow="pedestrian delivery bicycle" speed="3.65" length="2.34" shape="750.10,264.23 749.21,264.23 747.95,263.52"/>
    </edge>
    <edge id=":11173433351_0" function="internal">
        <lane id=":11173433351_0_0" index="0" allow="pedestrian delivery bicycle" speed="4.98" length="5.07" shape="790.10,225.83 789.37,224.63 788.45,223.97 787.32,223.87 785.98,224.31"/>
    </edge>
    <edge id=":11173433351_1" function="internal">
        <lane id=":11173433351_1_0" index="0" allow="pedestrian delivery bicycle" speed="5.56" length="8.41" shape="790.10,225.83 789.21,223.14 789.06,220.99 789.63,219.37 790.93,218.27"/>
    </edge>
    <edge id=":11173433351_2" function="internal">
        <lane id=":11173433351_2_0" index="0" allow="pedestrian delivery bicycle" speed="3.65" length="4.67" shape="790.10,225.83 790.37,224.41 790.95,223.73 791.84,223.79 793.04,224.58"/>
    </edge>
    <edge id=":11173433351_3" function="internal">
        <lane id=":11173433351_3_0" index="0" allow="pedestrian delivery bicycle" speed="4.56" length="3.72" shape="792.35,221.14 792.03,221.73 792.22,222.68 792.65,223.72 793.04,224.58"/>
    </edge>
    <edge id=":11173433351_4" function="internal">
        <lane id=":11173433351_4_0" index="0" allow="pedestrian delivery bicycle" speed="5.56" length="7.11" shape="792.35,221.14 785.98,224.31"/>
    </edge>
    <edge id=":11173433351_5" function="internal">
        <lane id=":11173433351_5_0" index="0" allow="pedestrian delivery bicycle" speed="3.65" length="4.67" shape="792.35,221.14 790.92,220.96 790.21,220.42 790.21,219.52 790.93,218.27"/>
    </edge>
    <edge id=":11173433351_6" function="internal">
        <lane id=":11173433351_6_0" index="0" allow="pedestrian delivery bicycle" speed="5.56" length="7.12" shape="784.56,221.44 790.93,218.27"/>
    </edge>
    <edge id=":11173433351_7" function="internal">
        <lane id=":11173433351_7_0" index="0" allow="pedestrian delivery bicycle" speed="5.56" length="10.47" shape="784.56,221.44 787.31,220.53 789.64,220.76 791.55,222.10 793.04,224.58"/>
    </edge>
    <edge id=":11173433351_8" function="internal">
        <lane id=":11173433351_8_0" index="0" allow="pedestrian delivery bicycle" speed="3.65" length="4.67" shape="784.56,221.44 785.99,221.62 786.70,222.16 786.70,223.06 785.98,224.31"/>
    </edge>
    <edge id=":11173433352_0" function="internal">
        <lane id=":11173433352_0_0" index="0" allow="pedestrian delivery bicycle" speed="5.56" length="3.96" shape="797.72,243.83 796.18,240.19"/>
    </edge>
    <edge id=":11173433352_1" function="internal">
        <lane id=":11173433352_1_0" index="0" allow="pedestrian delivery bicycle" speed="3.65" length="2.34" shape="797.72,243.83 797.99,242.41 798.57,241.73"/>
    </edge>
    <edge id=":11173433352_4" function="internal">
        <lane id=":11173433352_4_0" index="0" allow="pedestrian delivery bicycle" speed="3.65" length="2.34" shape="798.57,241.73 799.46,241.79 800.66,242.58"/>
    </edge>
    <edge id=":11173433352_2" function="internal">
        <lane id=":11173433352_2_0" index="0" allow="pedestrian delivery bicycle" speed="5.56" length="3.95" shape="799.12,238.94 800.66,242.58"/>
    </edge>
    <edge id=":11173433352_3" function="internal">
        <lane id=":11173433352_3_0" index="0" allow="pedestrian delivery bicycle" speed="3.65" length="2.34" shape="799.12,238.94 798.85,240.36 798.27,241.04"/>
    </edge>
    <edge id=":11173433352_5" function="internal">
        <lane id=":11173433352_5_0" index="0" allow="pedestrian delivery bicycle" speed="3.65" length="2.34" shape="798.27,241.04 797.38,240.98 796.18,240.19"/>
    </edge>
    <edge id=":11201733958_0" function="internal">
        <lane id=":11201733958_0_0" index="0" allow="pedestrian delivery bicycle" speed="3.65" length="4.67" shape="590.35,230.60 590.13,232.02 589.57,232.72 588.68,232.70 587.45,231.94"/>
    </edge>
    <edge id=":11201733959_0" function="internal">
        <lane id=":11201733959_0_0" index="0" allow="pedestrian delivery bicycle" speed="3.65" length="4.67" shape="493.72,33.09 493.92,31.66 494.47,30.96 495.36,30.97 496.60,31.71"/>